LAMMPS (2 Aug 2023 - Update 3)
# Biphasic LJ liquid

variable        dt equal 0.001
variable        eps1 equal 1.0
variable        eps2 equal 1.0
variable        eps12 equal 1.0

units		    lj
atom_style	    atomic

# Create atoms
lattice sc 4.0
Lattice spacing in x,y,z = 0.62996052 0.62996052 0.62996052
region whole block 0 10 0 10 0 40
create_box 2 whole
Created orthogonal box = (0 0 0) to (6.2996052 6.2996052 25.198421)

# Create type 1 atoms
lattice sc 0.47
Lattice spacing in x,y,z = 1.2861769 1.2861769 1.2861769
create_atoms 1 region whole
Created 500 atoms

# Create type 2 atoms
lattice sc 0.47 origin 0.5 0.5 0.5
Lattice spacing in x,y,z = 1.2861769 1.2861769 1.2861769
create_atoms 2 region whole
Created 500 atoms

# Potential
pair_style      lj/cut 1000
pair_coeff      1 1 1 1.0
pair_coeff      2 2 1 1.0
pair_coeff      1 2 1 1.0

mass * 1.0
timestep        0.001

velocity	    all create 2.5 87287 loop geom

pair_style	    lj/cut 2.5
pair_coeff	    1 1 1.0 1.0 2.5

neighbor	    0.3 bin
neigh_modify	every 20 delay 0 check no

fix             1 all nve

compute         temp all temp
compute         pe all pe
compute         ke all ke

dump		    mydump all custom 10 test_dump/dump.* id type xs ys zs

thermo		    1000
run	            20000
Generated 0 of 1 mixed pair_coeff terms from geometric mixing rule
Step          Temp          E_pair         E_mol          TotEng         Press
0   2.5           -2.059761       0              1.686489       24.874953
Averages over the last 11 of 21 rows, steps 10000 to 20000:
Temp E_pair E_mol TotEng Press
3.23346 -3.18579 0 1.65954 24.0402
Loop time of 21.0688 on 1 procs for 20000 steps with 1000 atoms
